data/Network_07R-10/scenario_10/case.raw
0,   100.00, 33, 0, 1, 60.00     / PSS(R)E-33.7    TUE, SEP 11 2018  21:50
 GO Competition Network Model 07
 GO Competition Network Model 07
     1,'A1          ', 345.0000,1,   1,   1,   1,1.00398, -17.3863,1.05000,0.95000,1.10000,0.90000
     2,'A2          ', 345.0000,1,   1,   1,   1,1.00400, -17.3948,1.05000,0.95000,1.10000,0.90000
     3,'A3          ', 345.0000,1,   1,   1,   1,1.00110, -18.7462,1.05000,0.95000,1.10000,0.90000
     4,'A4          ', 345.0000,1,   1,   1,   1,1.00112, -18.7512,1.05000,0.95000,1.10000,0.90000
     5,'A5          ', 345.0000,1,   1,   1,   1,1.00142, -17.1929,1.05000,0.95000,1.10000,0.90000
     6,'A6          ', 345.0000,1,   1,   1,   1,1.00144, -17.2011,1.05000,0.95000,1.10000,0.90000
     7,'A7          ', 345.0000,1,   1,   1,   1,0.99865, -17.6596,1.05000,0.95000,1.10000,0.90000
     8,'A8          ', 345.0000,1,   1,   1,   1,0.99868, -17.6650,1.05000,0.95000,1.10000,0.90000
     9,'A9          ', 345.0000,2,   1,   1,   1,1.00363, -15.6596,1.05000,0.95000,1.10000,0.90000
    10,'A10         ', 345.0000,2,   1,   1,   1,1.00358, -15.6150,1.05000,0.95000,1.10000,0.90000
    11,'A11         ', 138.0000,2,   1,   1,   1,1.00439, -17.6835,1.05000,0.95000,1.10000,0.90000
    12,'A12         ', 138.0000,2,   1,   1,   1,1.00069, -17.6611,1.05000,0.95000,1.10000,0.90000
    13,'A13         ', 138.0000,1,   1,   1,   1,1.00394, -17.3666,1.05000,0.95000,1.10000,0.90000
    14,'A14         ', 138.0000,1,   1,   1,   1,1.00091, -17.5808,1.05000,0.95000,1.10000,0.90000
    15,'A15         ', 138.0000,1,   1,   1,   1,1.00247, -17.8178,1.05000,0.95000,1.10000,0.90000
    16,'A16         ', 138.0000,1,   1,   1,   1,1.00247, -17.8176,1.05000,0.95000,1.10000,0.90000
    17,'A17         ', 138.0000,1,   1,   1,   1,1.00581, -17.7831,1.05000,0.95000,1.10000,0.90000
    18,'A18         ', 138.0000,1,   1,   1,   1,1.00558, -16.2522,1.05000,0.95000,1.10000,0.90000
    19,'A19         ', 138.0000,1,   1,   1,   1,1.00553, -16.2312,1.05000,0.95000,1.10000,0.90000
    20,'A20         ', 138.0000,2,   1,   1,   1,1.00668, -17.7241,1.05000,0.95000,1.10000,0.90000
    21,'A21         ', 138.0000,1,   1,   1,   1,0.98393, -20.9122,1.05000,0.95000,1.10000,0.90000
    22,'A22         ', 138.0000,1,   1,   1,   1,0.98403, -20.9064,1.05000,0.95000,1.10000,0.90000
    23,'A23         ', 138.0000,1,   1,   1,   1,1.00202, -19.5837,1.05000,0.95000,1.10000,0.90000
    24,'A24         ', 138.0000,2,   1,   1,   1,1.00540, -19.5646,1.05000,0.95000,1.10000,0.90000
    25,'A25         ', 138.0000,2,   1,   1,   1,1.00282, -17.6755,1.05000,0.95000,1.10000,0.90000
    26,'A26         ', 138.0000,2,   1,   1,   1,1.00290, -17.6790,1.05000,0.95000,1.10000,0.90000
    27,'A27         ', 138.0000,1,   1,   1,   1,1.00389, -17.7302,1.05000,0.95000,1.10000,0.90000
    28,'A28         ', 138.0000,1,   1,   1,   1,1.00416, -17.7164,1.05000,0.95000,1.10000,0.90000
    29,'A29         ', 138.0000,1,   1,   1,   1,1.00515, -17.0602,1.05000,0.95000,1.10000,0.90000
    30,'A30         ', 138.0000,1,   1,   1,   1,1.00517, -17.0589,1.05000,0.95000,1.10000,0.90000
    31,'A31         ', 138.0000,1,   1,   1,   1,0.98298, -21.6473,1.05000,0.95000,1.10000,0.90000
    32,'A32         ', 138.0000,2,   1,   1,   1,0.98295, -21.6823,1.05000,0.95000,1.10000,0.90000
    33,'A33         ', 138.0000,1,   1,   1,   1,1.00521, -15.6861,1.05000,0.95000,1.10000,0.90000
    34,'A34         ', 138.0000,1,   1,   1,   1,1.00546, -15.6742,1.05000,0.95000,1.10000,0.90000
    35,'A35         ', 138.0000,1,   1,   1,   1,1.00288, -17.7012,1.05000,0.95000,1.10000,0.90000
    36,'A36         ', 138.0000,1,   1,   1,   1,1.00377, -17.4728,1.05000,0.95000,1.10000,0.90000
    37,'A37         ', 138.0000,1,   1,   1,   1,1.00289, -17.7006,1.05000,0.95000,1.10000,0.90000
    38,'A38         ', 138.0000,1,   1,   1,   1,1.00377, -17.4728,1.05000,0.95000,1.10000,0.90000
    39,'A39         ', 138.0000,1,   1,   1,   1,0.99617, -24.5425,1.05000,0.95000,1.10000,0.90000
    40,'A40         ', 138.0000,1,   1,   1,   1,1.00387, -17.5312,1.05000,0.95000,1.10000,0.90000
    41,'A41         ', 138.0000,1,   1,   1,   1,1.00387, -17.5339,1.05000,0.95000,1.10000,0.90000
    42,'A42         ', 138.0000,1,   1,   1,   1,1.00729, -16.8093,1.05000,0.95000,1.10000,0.90000
    43,'A43         ', 138.0000,1,   1,   1,   1,1.00732, -16.8071,1.05000,0.95000,1.10000,0.90000
    44,'A44         ', 138.0000,1,   1,   1,   1,0.98235, -20.9139,1.05000,0.95000,1.10000,0.90000
    45,'A45         ', 138.0000,1,   1,   1,   1,0.98229, -20.9217,1.05000,0.95000,1.10000,0.90000
    46,'A46         ', 138.0000,2,   1,   1,   1,0.99723, -20.3800,1.05000,0.95000,1.10000,0.90000
    47,'A47         ', 138.0000,1,   1,   1,   1,0.98971, -19.9091,1.05000,0.95000,1.10000,0.90000
    48,'A48         ', 138.0000,1,   1,   1,   1,0.98956, -19.9118,1.05000,0.95000,1.10000,0.90000
    49,'A49         ', 138.0000,1,   1,   1,   1,0.99531, -26.1396,1.05000,0.95000,1.10000,0.90000
    50,'A50         ', 138.0000,1,   1,   1,   1,0.99969, -21.1495,1.05000,0.95000,1.10000,0.90000
    51,'A51         ', 138.0000,1,   1,   1,   1,0.99969, -21.1495,1.05000,0.95000,1.10000,0.90000
    52,'A52         ', 138.0000,1,   1,   1,   1,0.98454, -20.6523,1.05000,0.95000,1.10000,0.90000
    53,'A53         ', 138.0000,2,   1,   1,   1,0.99741, -19.9740,1.05000,0.95000,1.10000,0.90000
    54,'A54         ', 138.0000,1,   1,   1,   1,1.00300, -17.4608,1.05000,0.95000,1.10000,0.90000
    55,'A55         ', 138.0000,1,   1,   1,   1,1.00306, -17.4824,1.05000,0.95000,1.10000,0.90000
    56,'A56         ', 138.0000,1,   1,   1,   1,0.99973, -21.2730,1.05000,0.95000,1.10000,0.90000
    57,'A57         ', 138.0000,1,   1,   1,   1,0.99947, -21.2254,1.05000,0.95000,1.10000,0.90000
    58,'A58         ', 138.0000,1,   1,   1,   1,1.00217, -17.8911,1.05000,0.95000,1.10000,0.90000
    59,'A59         ', 138.0000,1,   1,   1,   1,1.00558, -17.2790,1.05000,0.95000,1.10000,0.90000
    60,'A60         ', 138.0000,1,   1,   1,   1,0.98547, -19.9315,1.05000,0.95000,1.10000,0.90000
    61,'A61         ', 138.0000,1,   1,   1,   1,0.98549, -19.9296,1.05000,0.95000,1.10000,0.90000
    62,'A62         ', 138.0000,1,   1,   1,   1,1.00559, -16.2513,1.05000,0.95000,1.10000,0.90000
    63,'A63         ', 138.0000,1,   1,   1,   1,1.00553, -16.2308,1.05000,0.95000,1.10000,0.90000
    64,'A64         ', 138.0000,1,   1,   1,   1,1.00298, -17.6865,1.05000,0.95000,1.10000,0.90000
    65,'A65         ', 138.0000,1,   1,   1,   1,1.00517, -17.0540,1.05000,0.95000,1.10000,0.90000
    66,'A66         ', 138.0000,1,   1,   1,   1,0.99736, -21.9634,1.05000,0.95000,1.10000,0.90000
    67,'A67         ', 138.0000,2,   1,   1,   1,0.99736, -21.9761,1.05000,0.95000,1.10000,0.90000
    68,'A68         ', 138.0000,2,   1,   1,   1,1.00858, -14.6261,1.05000,0.95000,1.10000,0.90000
    69,'A69         ', 138.0000,1,   1,   1,   1,0.99246, -19.8558,1.05000,0.95000,1.10000,0.90000
    70,'A70         ', 138.0000,1,   1,   1,   1,0.97883, -21.2436,1.05000,0.95000,1.10000,0.90000
    71,'B71         ', 345.0000,1,   2,   2,   1,0.99038, -14.9640,1.05000,0.95000,1.10000,0.90000
    72,'B72         ', 345.0000,1,   2,   2,   1,0.99038, -14.9640,1.05000,0.95000,1.10000,0.90000
    73,'B73         ', 345.0000,1,   2,   2,   1,1.00080, -12.7670,1.05000,0.95000,1.10000,0.90000
    74,'B74         ', 345.0000,1,   2,   2,   1,1.00080, -12.7670,1.05000,0.95000,1.10000,0.90000
    75,'B75         ', 345.0000,2,   2,   2,   1,1.00773, -14.8239,1.05000,0.95000,1.10000,0.90000
    76,'B76         ', 345.0000,2,   2,   2,   1,1.00788, -14.8223,1.05000,0.95000,1.10000,0.90000
    77,'B77         ', 500.0000,2,   2,   2,   1,1.00260, -17.3892,1.05000,0.95000,1.10000,0.90000
    78,'B78         ', 345.0000,2,   2,   2,   1,0.99160, -14.1863,1.05000,0.95000,1.10000,0.90000
    79,'B79         ', 345.0000,1,   2,   2,   1,0.99015, -14.0803,1.05000,0.95000,1.10000,0.90000
    80,'B80         ', 345.0000,1,   2,   2,   1,0.99015, -14.0803,1.05000,0.95000,1.10000,0.90000
    81,'B81         ', 345.0000,1,   2,   2,   1,0.99012, -14.9044,1.05000,0.95000,1.10000,0.90000
    82,'B82         ', 345.0000,1,   2,   2,   1,0.99012, -14.9020,1.05000,0.95000,1.10000,0.90000
    83,'B83         ', 138.0000,1,   2,   2,   1,0.96885, -15.7651,1.05000,0.95000,1.10000,0.90000
    84,'B84         ', 138.0000,1,   2,   2,   1,0.97928, -14.4054,1.05000,0.95000,1.10000,0.90000
    85,'B85         ', 138.0000,1,   2,   2,   1,1.00525, -13.0882,1.05000,0.95000,1.10000,0.90000
    86,'B86         ', 138.0000,1,   2,   2,   1,1.00012, -16.7008,1.05000,0.95000,1.10000,0.90000
    87,'B87         ', 138.0000,1,   2,   2,   1,0.97250, -10.7948,1.05000,0.95000,1.10000,0.90000
    88,'B88         ', 138.0000,1,   2,   2,   1,0.98623, -10.0114,1.05000,0.95000,1.10000,0.90000
    89,'B89         ', 138.0000,1,   2,   2,   1,0.97879, -15.3723,1.05000,0.95000,1.10000,0.90000
    90,'B90         ', 138.0000,2,   2,   2,   1,0.97889, -16.8105,1.05000,0.95000,1.10000,0.90000
    91,'B91         ', 138.0000,1,   2,   2,   1,0.99076,  -7.7913,1.05000,0.95000,1.10000,0.90000
    92,'B92         ', 138.0000,2,   2,   2,   1,1.00542, -13.0673,1.05000,0.95000,1.10000,0.90000
    93,'B93         ', 138.0000,1,   2,   2,   1,1.00542, -13.0673,1.05000,0.95000,1.10000,0.90000
    94,'B94         ', 138.0000,1,   2,   2,   1,0.96455, -15.2604,1.05000,0.95000,1.10000,0.90000
    95,'B95         ', 138.0000,2,   2,   2,   1,0.95306, -19.5954,1.05000,0.95000,1.10000,0.90000
    96,'B96         ', 138.0000,2,   2,   2,   1,0.97265, -15.9395,1.05000,0.95000,1.10000,0.90000
    97,'B97         ', 138.0000,1,   2,   2,   1,0.97245, -15.9494,1.05000,0.95000,1.10000,0.90000
    98,'B98         ', 138.0000,2,   2,   2,   1,1.00358, -12.0424,1.05000,0.95000,1.10000,0.90000
    99,'B99         ', 138.0000,2,   2,   2,   1,1.00788, -10.5420,1.05000,0.95000,1.10000,0.90000
   100,'B100        ', 138.0000,1,   2,   2,   1,0.96371, -16.5178,1.05000,0.95000,1.10000,0.90000
   101,'B101        ', 138.0000,1,   2,   2,   1,0.99890, -13.6096,1.05000,0.95000,1.10000,0.90000
   102,'B102        ', 138.0000,1,   2,   2,   1,0.96643, -15.9119,1.05000,0.95000,1.10000,0.90000
   103,'B103        ', 138.0000,1,   2,   2,   1,1.00291, -12.1395,1.05000,0.95000,1.10000,0.90000
   104,'B104        ', 138.0000,1,   2,   2,   1,0.95479, -18.0531,1.05000,0.95000,1.10000,0.90000
   105,'B105        ', 138.0000,1,   2,   2,   1,1.00607, -13.1998,1.05000,0.95000,1.10000,0.90000
   106,'B106        ', 138.0000,1,   2,   2,   1,0.98403, -15.1634,1.05000,0.95000,1.10000,0.90000
   107,'B107        ', 138.0000,1,   2,   2,   1,0.98027, -12.9211,1.05000,0.95000,1.10000,0.90000
   108,'B108        ', 138.0000,1,   2,   2,   1,0.97120, -15.9238,1.05000,0.95000,1.10000,0.90000
   109,'B109        ', 138.0000,1,   2,   2,   1,0.98371, -15.3560,1.05000,0.95000,1.10000,0.90000
   110,'B110        ', 138.0000,1,   2,   2,   1,0.97297, -12.7287,1.05000,0.95000,1.10000,0.90000
   111,'B111        ', 138.0000,1,   2,   2,   1,0.96107, -16.9086,1.05000,0.95000,1.10000,0.90000
   112,'B112        ', 138.0000,2,   2,   2,   1,0.98554, -15.2036,1.05000,0.95000,1.10000,0.90000
   113,'B113        ', 138.0000,1,   2,   2,   1,0.97483, -10.4801,1.05000,0.95000,1.10000,0.90000
   114,'B114        ', 138.0000,1,   2,   2,   1,0.97898, -14.5494,1.05000,0.95000,1.10000,0.90000
   115,'B115        ', 138.0000,1,   2,   2,   1,0.98384, -14.0476,1.05000,0.95000,1.10000,0.90000
   116,'B116        ', 138.0000,1,   2,   2,   1,0.95625, -17.4132,1.05000,0.95000,1.10000,0.90000
   117,'B117        ', 138.0000,1,   2,   2,   1,0.95476, -20.4878,1.05000,0.95000,1.10000,0.90000
   118,'B118        ', 138.0000,1,   2,   2,   1,0.96933, -15.9261,1.05000,0.95000,1.10000,0.90000
   119,'B119        ', 138.0000,1,   2,   2,   1,0.96977, -13.6648,1.05000,0.95000,1.10000,0.90000
   120,'B120        ', 138.0000,2,   2,   2,   1,0.98346, -15.2615,1.05000,0.95000,1.10000,0.90000
   121,'B121        ', 138.0000,1,   2,   2,   1,0.98335, -15.2663,1.05000,0.95000,1.10000,0.90000
   122,'B122        ', 138.0000,1,   2,   2,   1,0.96513, -16.1536,1.05000,0.95000,1.10000,0.90000
   123,'B123        ', 138.0000,1,   2,   2,   1,0.97452, -15.6825,1.05000,0.95000,1.10000,0.90000
   124,'B124        ', 138.0000,2,   2,   2,   1,0.96864, -15.6942,1.05000,0.95000,1.10000,0.90000
   125,'B125        ', 138.0000,2,   2,   2,   1,0.96847, -15.6870,1.05000,0.95000,1.10000,0.90000
   126,'B126        ', 138.0000,1,   2,   2,   1,0.97950, -15.0022,1.05000,0.95000,1.10000,0.90000
   127,'B127        ', 138.0000,2,   2,   2,   1,0.95966, -17.0816,1.05000,0.95000,1.10000,0.90000
   128,'B128        ', 138.0000,2,   2,   2,   1,0.95973, -17.0947,1.05000,0.95000,1.10000,0.90000
   129,'B129        ', 138.0000,1,   2,   2,   1,0.97256, -15.9438,1.05000,0.95000,1.10000,0.90000
   130,'B130        ', 138.0000,1,   2,   2,   1,0.97416, -10.5256,1.05000,0.95000,1.10000,0.90000
   131,'B131        ', 138.0000,1,   2,   2,   1,0.98487, -15.2491,1.05000,0.95000,1.10000,0.90000
   132,'B132        ', 138.0000,1,   2,   2,   1,0.95639, -17.4679,1.05000,0.95000,1.10000,0.90000
   133,'B133        ', 138.0000,1,   2,   2,   1,0.95485, -17.5323,1.05000,0.95000,1.10000,0.90000
   134,'B134        ', 138.0000,1,   2,   2,   1,0.95540, -17.4878,1.05000,0.95000,1.10000,0.90000
   135,'B135        ', 138.0000,2,   2,   2,   1,1.00718,  -3.5222,1.05000,0.95000,1.10000,0.90000
   136,'B136        ', 138.0000,2,   2,   2,   1,0.97125, -15.6329,1.05000,0.95000,1.10000,0.90000
   137,'B137        ', 138.0000,1,   2,   2,   1,0.97202, -15.9811,1.05000,0.95000,1.10000,0.90000
   138,'B138        ', 138.0000,2,   2,   2,   1,0.95421, -20.1208,1.05000,0.95000,1.10000,0.90000
   139,'B139        ', 138.0000,1,   2,   2,   1,0.96842, -15.8866,1.05000,0.95000,1.10000,0.90000
   140,'B140        ', 138.0000,1,   2,   2,   1,1.00287, -14.4336,1.05000,0.95000,1.10000,0.90000
   141,'B141        ', 138.0000,1,   2,   2,   1,0.97164, -10.9014,1.05000,0.95000,1.10000,0.90000
   142,'B142        ', 138.0000,1,   2,   2,   1,0.95694, -17.4235,1.05000,0.95000,1.10000,0.90000
   143,'B143        ', 138.0000,1,   2,   2,   1,0.98457, -13.9085,1.05000,0.95000,1.10000,0.90000
   144,'B144        ', 138.0000,1,   2,   2,   1,0.97678, -15.4484,1.05000,0.95000,1.10000,0.90000
   145,'B145        ', 138.0000,1,   2,   2,   1,0.98474, -15.1820,1.05000,0.95000,1.10000,0.90000
   146,'B146        ', 138.0000,1,   2,   2,   1,0.97085, -15.9623,1.05000,0.95000,1.10000,0.90000
   147,'B147        ', 138.0000,1,   2,   2,   1,0.97664, -15.4576,1.05000,0.95000,1.10000,0.90000
   148,'B148        ', 138.0000,1,   2,   2,   1,0.96576, -16.1881,1.05000,0.95000,1.10000,0.90000
   149,'B149        ', 138.0000,1,   2,   2,   1,0.96906, -14.5079,1.05000,0.95000,1.10000,0.90000
   150,'B150        ', 345.0000,2,   2,   2,   1,1.00794, -15.6100,1.05000,0.95000,1.10000,0.90000
   151,'C151        ', 345.0000,1,   3,   3,   1,0.99241, -13.7501,1.05000,0.95000,1.10000,0.90000
   152,'C152        ', 500.0000,1,   3,   3,   1,0.99961, -12.8640,1.05000,0.95000,1.10000,0.90000
   153,'C153        ', 500.0000,2,   3,   3,   1,0.99959, -12.8600,1.05000,0.95000,1.10000,0.90000
   154,'C154        ', 500.0000,1,   3,   3,   1,0.99472, -16.3413,1.05000,0.95000,1.10000,0.90000
   155,'C155        ', 500.0000,1,   3,   3,   1,0.99476, -16.3070,1.05000,0.95000,1.10000,0.90000
   156,'C156        ', 500.0000,1,   3,   3,   1,1.00555, -21.8121,1.05000,0.95000,1.10000,0.90000
   157,'C157        ', 345.0000,2,   3,   3,   1,0.98782, -21.0265,1.05000,0.95000,1.10000,0.90000
   158,'C158        ', 500.0000,2,   3,   3,   1,0.96148, -21.3106,1.05000,0.95000,1.10000,0.90000
   159,'C159        ', 500.0000,1,   3,   3,   1,0.96148, -21.3106,1.05000,0.95000,1.10000,0.90000
   160,'C160        ', 500.0000,1,   3,   3,   1,0.98463, -14.8362,1.05000,0.95000,1.10000,0.90000
   161,'C161        ', 500.0000,2,   3,   3,   1,0.98437, -14.8277,1.05000,0.95000,1.10000,0.90000
   162,'C162        ', 500.0000,1,   3,   3,   1,0.99787, -13.7070,1.05000,0.95000,1.10000,0.90000
   163,'C163        ', 500.0000,1,   3,   3,   1,1.00756, -12.6335,1.05000,0.95000,1.10000,0.90000
   164,'C164        ', 500.0000,1,   3,   3,   1,1.00749, -12.6377,1.05000,0.95000,1.10000,0.90000
   165,'C165        ', 500.0000,2,   3,   3,   1,1.00429, -14.2477,1.05000,0.95000,1.10000,0.90000
   166,'C166        ', 500.0000,2,   3,   3,   1,1.00445, -14.2567,1.05000,0.95000,1.10000,0.90000
   167,'C167        ', 138.0000,1,   3,   3,   1,1.00244,  -7.8682,1.05000,0.95000,1.10000,0.90000
   168,'C168        ', 138.0000,2,   3,   3,   1,0.99955, -15.0287,1.05000,0.95000,1.10000,0.90000
   169,'C169        ', 138.0000,2,   3,   3,   1,0.99932, -15.0251,1.05000,0.95000,1.10000,0.90000
   170,'C170        ', 138.0000,1,   3,   3,   1,0.99827, -15.3953,1.05000,0.95000,1.10000,0.90000
   171,'C171        ', 138.0000,2,   3,   3,   1,1.00662,  -4.5020,1.05000,0.95000,1.10000,0.90000
   172,'C172        ', 138.0000,1,   3,   3,   1,0.97798, -19.7732,1.05000,0.95000,1.10000,0.90000
   173,'C173        ',  32.0000,1,   3,   3,   1,1.02973, -21.9522,1.05000,0.95000,1.10000,0.90000
   174,'C174        ', 138.0000,1,   3,   3,   1,0.98849, -16.2999,1.05000,0.95000,1.10000,0.90000
   175,'C175        ', 138.0000,1,   3,   3,   1,0.99273, -15.5722,1.05000,0.95000,1.10000,0.90000
   176,'C176        ', 138.0000,1,   3,   3,   1,0.99274, -15.5644,1.05000,0.95000,1.10000,0.90000
   177,'C177        ', 138.0000,2,   3,   3,   1,1.00727, -12.7283,1.05000,0.95000,1.10000,0.90000
   178,'C178        ', 138.0000,2,   3,   3,   1,1.00788, -12.6090,1.05000,0.95000,1.10000,0.90000
   179,'C179        ', 138.0000,1,   3,   3,   1,0.99070, -15.7765,1.05000,0.95000,1.10000,0.90000
   180,'C180        ', 138.0000,1,   3,   3,   1,0.99250, -15.5908,1.05000,0.95000,1.10000,0.90000
   181,'C181        ', 138.0000,1,   3,   3,   1,0.98851, -16.2827,1.05000,0.95000,1.10000,0.90000
   182,'C182        ', 138.0000,1,   3,   3,   1,0.99398, -15.4839,1.05000,0.95000,1.10000,0.90000
   183,'C183        ', 138.0000,2,   3,   3,   1,1.00718,  -3.8822,1.05000,0.95000,1.10000,0.90000
   184,'C184        ', 138.0000,1,   3,   3,   1,1.00694,  -4.4452,1.05000,0.95000,1.10000,0.90000
   185,'C185        ', 138.0000,2,   3,   3,   1,1.00980, -14.4415,1.05000,0.95000,1.10000,0.90000
   186,'C186        ', 138.0000,1,   3,   3,   1,0.99539, -15.3669,1.05000,0.95000,1.10000,0.90000
   187,'C187        ',  16.0000,1,   3,   3,   1,1.02142, -13.8216,1.05000,0.95000,1.10000,0.90000
   188,'C188        ', 138.0000,2,   3,   3,   1,1.00788, -11.2721,1.05000,0.95000,1.10000,0.90000
   189,'C189        ', 138.0000,1,   3,   3,   1,0.99299,  -8.4155,1.05000,0.95000,1.10000,0.90000
   190,'C190        ', 138.0000,1,   3,   3,   1,0.97805, -19.7744,1.05000,0.95000,1.10000,0.90000
   191,'C191        ', 138.0000,1,   3,   3,   1,0.98992, -15.8809,1.05000,0.95000,1.10000,0.90000
   192,'C192        ', 138.0000,1,   3,   3,   1,0.99805, -14.1570,1.05000,0.95000,1.10000,0.90000
   193,'C193        ', 138.0000,1,   3,   3,   1,0.99860, -14.7500,1.05000,0.95000,1.10000,0.90000
   194,'C194        ', 138.0000,2,   3,   3,   1,0.98817, -16.3248,1.05000,0.95000,1.10000,0.90000
   195,'C195        ', 138.0000,2,   3,   3,   1,1.00788,  -5.3241,1.05000,0.95000,1.10000,0.90000
   196,'C196        ', 138.0000,1,   3,   3,   1,0.99156,  -8.6097,1.05000,0.95000,1.10000,0.90000
   197,'C197        ', 138.0000,1,   3,   3,   1,0.99262,  -8.4486,1.05000,0.95000,1.10000,0.90000
   198,'C198        ', 138.0000,1,   3,   3,   1,1.00679,  -5.0239,1.05000,0.95000,1.10000,0.90000
   199,'C199        ', 138.0000,1,   3,   3,   1,0.99688,  -7.9630,1.05000,0.95000,1.10000,0.90000
   200,'C200        ', 138.0000,1,   3,   3,   1,0.99683,  -7.8592,1.05000,0.95000,1.10000,0.90000
...
0 / END OF BUS DATA, BEGIN LOAD DATA
     2,'99',0,   1,   1,    13.121,    -7.435,     0.000,     0.000,     0.000,     0.000,   1,1,0
     3,'1 ',1,   1,   1,     1.922,     1.320,     0.000,     0.000,     0.000,     0.000,   1,1,0
     4,'99',0,   1,   1,    26.870,    -9.742,     0.000,     0.000,     0.000,     0.000,   1,1,0
     6,'99',0,   1,   1,    79.520,    41.295,     0.000,     0.000,     0.000,     0.000,   1,1,0
     9,'1 ',1,   1,   1,    12.580,    25.720,     0.000,     0.000,     0.000,     0.000,   1,1,0
     9,'99',1,   1,   1,   140.371,   -97.358,     0.000,     0.000,     0.000,     0.000,   1,1,0
    10,'1 ',1,   1,   1,    28.700,    50.466,     0.000,     0.000,     0.000,     0.000,   1,1,0
    11,'1 ',1,   1,   1,     8.647,     5.191,     0.000,     0.000,     0.000,     0.000,   1,1,0
    12,'1 ',1,   1,   1,     1.382,     2.765,     0.000,     0.000,     0.000,     0.000,   1,1,0
    12,'99',1,   1,   1,    13.125,     4.624,     0.000,     0.000,     0.000,     0.000,   1,1,0
    13,'1 ',1,   1,   1,     4.375,     1.721,     0.000,     0.000,     0.000,     0.000,   1,1,0
    14,'1 ',1,   1,   1,     3.028,     0.677,     0.000,     0.000,     0.000,     0.000,   1,1,0
    14,'99',1,   1,   1,    11.104,     4.743,     0.000,     0.000,     0.000,     0.000,   1,1,0
    15,'1 ',1,   1,   1,     0.297,     0.069,     0.000,     0.000,     0.000,     0.000,   1,1,0
    17,'1 ',1,   1,   1,     7.382,     3.193,     0.000,     0.000,     0.000,     0.000,   1,1,0
    18,'1 ',1,   1,   1,     1.700,     0.553,     0.000,     0.000,     0.000,     0.000,   1,1,0
    19,'1 ',1,   1,   1,     1.037,     0.346,     0.000,     0.000,     0.000,     0.000,   1,1,0
    20,'1 ',1,   1,   1,     1.106,    -0.373,     0.000,     0.000,     0.000,     0.000,   1,1,0
    20,'99',1,   1,   1,    13.093,   -24.225,     0.000,     0.000,     0.000,     0.000,   1,1,0
    21,'1 ',1,   1,   1,    10.071,     2.143,     0.000,     0.000,     0.000,     0.000,   1,1,0
    23,'1 ',1,   1,   1,    27.649,     0.000,     0.000,     0.000,     0.000,     0.000,   1,1,0
    23,'99',1,   1,   1,     1.732,    -8.895,     0.000,     0.000,     0.000,     0.000,   1,1,0
    24,'1 ',1,   1,   1,     5.903,     3.470,     0.000,     0.000,     0.000,     0.000,   1,1,0
    25,'1 ',1,   1,   1,     0.000,    -0.276,     0.000,     0.000,     0.000,     0.000,   1,1,0
    26,'1 ',1,   1,   1,    24.476,     8.716,     0.000,     0.000,     0.000,     0.000,   1,1,0
    27,'1 ',1,   1,   1,     3.104,     1.037,     0.000,     0.000,     0.000,     0.000,   1,1,0
    29,'1 ',1,   1,   1,     6.574,     2.564,     0.000,     0.000,     0.000,     0.000,   1,1,0
    31,'1 ',1,   1,   1,     3.394,     1.182,     0.000,     0.000,     0.000,     0.000,   1,1,0
    32,'1 ',1,   1,   1,     4.873,     2.426,     0.000,     0.000,     0.000,     0.000,   1,1,0
    33,'1 ',1,   1,   1,     4.873,     3.193,     0.000,     0.000,     0.000,     0.000,   1,1,0
    35,'1 ',1,   1,   1,     1.106,     0.346,     0.000,     0.000,     0.000,     0.000,   1,1,0
    39,'1 ',1,   1,   1,     3.256,     0.332,     0.000,     0.000,     0.000,     0.000,   1,1,0
    39,'99',0,   1,   1,    12.258,    -0.483,     0.000,     0.000,     0.000,     0.000,   1,1,0
    41,'1 ',1,   1,   1,     1.182,     0.415,     0.000,     0.000,     0.000,     0.000,   1,1,0
    42,'1 ',1,   1,   1,     4.210,     0.622,     0.000,     0.000,     0.000,     0.000,   1,1,0
    43,'99',0,   1,   1,    14.328,     3.859,     0.000,     0.000,     0.000,     0.000,   1,1,0
    44,'1 ',1,   1,   1,     3.076,     0.539,     0.000,     0.000,     0.000,     0.000,   1,1,0
    44,'99',1,   1,   1,     7.879,     5.204,     0.000,     0.000,     0.000,     0.000,   1,1,0
    45,'1 ',1,   1,   1,     3.422,     1.576,     0.000,     0.000,     0.000,     0.000,   1,1,0
    46,'1 ',1,   1,   1,     6.428,     2.157,     0.000,     0.000,     0.000,     0.000,   1,1,0
    46,'99',1,   1,   1,    19.277,     8.629,     0.000,     0.000,     0.000,     0.000,   1,1,0
    47,'1 ',1,   1,   1,     8.094,     2.896,     0.000,     0.000,     0.000,     0.000,   1,1,0
    48,'1 ',1,   1,   1,     0.000,     0.104,     0.000,     0.000,     0.000,     0.000,   1,1,0
    49,'1 ',1,   1,   1,    12.387,     2.910,     0.000,     0.000,     0.000,     0.000,   1,1,0
    49,'99',0,   1,   1,    23.502,    -4.087,     0.000,     0.000,     0.000,     0.000,   1,1,0
    52,'1 ',1,   1,   1,    12.850,     4.092,     0.000,     0.000,     0.000,     0.000,   1,1,0
    53,'1 ',1,   1,   1,     5.475,     2.226,     0.000,     0.000,     0.000,     0.000,   1,1,0
    54,'1 ',1,   1,   1,     2.661,     1.458,     0.000,     0.000,     0.000,     0.000,   1,1,0
    55,'1 ',1,   1,   1,     0.221,     0.000,     0.000,     0.000,     0.000,     0.000,   1,1,0
    56,'1 ',1,   1,   1,     4.887,     1.811,     0.000,     0.000,     0.000,     0.000,   1,1,0
    57,'1 ',1,   1,   1,     2.882,     1.030,     0.000,     0.000,     0.000,     0.000,   1,1,0
    58,'1 ',1,   1,   1,     2.737,     0.961,     0.000,     0.000,     0.000,     0.000,   1,1,0
    58,'99',1,   1,   1,    31.722,    -5.022,     0.000,     0.000,     0.000,     0.000,   1,1,0
    59,'1 ',1,   1,   1,     4.583,     1.541,     0.000,     0.000,     0.000,     0.000,   1,1,0
    60,'1 ',1,   1,   1,     1.037,     0.276,     0.000,     0.000,     0.000,     0.000,   1,1,0
    61,'99',1,   1,   1,     6.207,    16.773,     0.000,     0.000,     0.000,     0.000,   1,1,0
    63,'1 ',1,   1,   1,     3.249,     1.071,     0.000,     0.000,     0.000,     0.000,   1,1,0
    64,'1 ',1,   1,   1,     1.624,     0.553,     0.000,     0.000,     0.000,     0.000,   1,1,0
    65,'1 ',1,   1,   1,     1.479,     0.484,     0.000,     0.000,     0.000,     0.000,   1,1,0
    66,'1 ',1,   1,   1,     5.108,     1.887,     0.000,     0.000,     0.000,     0.000,   1,1,0
    67,'1 ',1,   1,   1,     6.670,     2.578,     0.000,     0.000,     0.000,     0.000,   1,1,0
    68,'1 ',1,   1,   1,    11.889,    23.370,     0.000,     0.000,     0.000,     0.000,   1,1,0
    70,'1 ',1,   1,   1,    17.281,     4.839,     0.000,     0.000,     0.000,     0.000,   1,1,0
    75,'1 ',1,   2,   2,     8.295,    20.737,     0.000,     0.000,     0.000,     0.000,   1,1,0
    76,'1 ',1,   2,   2,    13.762,    25.278,     0.000,     0.000,     0.000,     0.000,   1,1,0
    77,'1 ',1,   2,   2,     8.295,    20.737,     0.000,     0.000,     0.000,     0.000,   1,1,0
    83,'1 ',1,   2,   2,     7.915,     1.825,     0.000,     0.000,     0.000,     0.000,   1,1,0
    84,'1 ',1,   2,   2,    17.910,     4.438,     0.000,     0.000,     0.000,     0.000,   1,1,0
    86,'1 ',1,   2,   2,     4.175,     1.673,     0.000,     0.000,     0.000,     0.000,   1,1,0
    86,'99',0,   2,   2,     9.663,     6.313,     0.000,     0.000,     0.000,     0.000,   1,1,0
    87,'1 ',1,   2,   2,     2.088,     0.878,     0.000,     0.000,     0.000,     0.000,   1,1,0
    88,'1 ',1,   2,   2,     4.583,     0.442,     0.000,     0.000,     0.000,     0.000,   1,1,0
    89,'1 ',1,   2,   2,     8.633,     3.352,     0.000,     0.000,     0.000,     0.000,   1,1,0
    90,'1 ',1,   2,   2,     2.509,     0.366,     0.000,     0.000,     0.000,     0.000,   1,1,0
    91,'1 ',1,   2,   2,     2.447,     0.802,     0.000,     0.000,     0.000,     0.000,   1,1,0
    92,'1 ',1,   2,   2,    13.285,    22.741,     0.000,     0.000,     0.000,     0.000,   1,1,0
    94,'1 ',1,   2,   2,     1.583,     0.581,     0.000,     0.000,     0.000,     0.000,   1,1,0
    95,'1 ',1,   2,   2,     3.242,     1.320,     0.000,     0.000,     0.000,     0.000,   1,1,0
    96,'1 ',1,   2,   2,     0.069,    -0.546,     0.000,     0.000,     0.000,     0.000,   1,1,0
    97,'1 ',1,   2,   2,     0.069,     0.035,     0.000,     0.000,     0.000,     0.000,   1,1,0
    97,'99',1,   2,   2,     3.784,     1.326,     0.000,     0.000,     0.000,     0.000,   1,1,0
    98,'1 ',1,   2,   2,     2.081,     3.463,     0.000,     0.000,     0.000,     0.000,   1,1,0
    98,'99',1,   2,   2,    11.906,    14.178,     0.000,     0.000,     0.000,     0.000,   1,1,0
    99,'1 ',1,   2,   2,     0.007,     0.007,     0.000,     0.000,     0.000,     0.000,   1,1,0
    99,'99',1,   2,   2,     8.679,     6.401,     0.000,     0.000,     0.000,     0.000,   1,1,0
   100,'1 ',1,   2,   2,     8.924,     3.276,     0.000,     0.000,     0.000,     0.000,   1,1,0
   101,'1 ',1,   2,   2,     6.477,     2.620,     0.000,     0.000,     0.000,     0.000,   1,1,0
   102,'1 ',1,   2,   2,     9.788,     3.933,     0.000,     0.000,     0.000,     0.000,   1,1,0
   103,'1 ',1,   2,   2,     7.880,     2.585,     0.000,     0.000,     0.000,     0.000,   1,1,0
   104,'1 ',1,   2,   2,     7.196,     2.627,     0.000,     0.000,     0.000,     0.000,   1,1,0
   107,'1 ',1,   2,   2,     3.795,     0.442,     0.000,     0.000,     0.000,     0.000,   1,1,0
   108,'1 ',1,   2,   2,     4.749,     1.382,     0.000,     0.000,     0.000,     0.000,   1,1,0
   109,'1 ',1,   2,   2,     3.885,     1.604,     0.000,     0.000,     0.000,     0.000,   1,1,0
   110,'1 ',1,   2,   2,     2.875,     1.168,     0.000,     0.000,     0.000,     0.000,   1,1,0
   111,'1 ',1,   2,   2,     1.009,     0.366,     0.000,     0.000,     0.000,     0.000,   1,1,0
   112,'1 ',1,   2,   2,     1.237,     0.525,     0.000,     0.000,     0.000,     0.000,   1,1,0
   113,'1 ',1,   2,   2,     1.154,     0.512,     0.000,     0.000,     0.000,     0.000,   1,1,0
   114,'1 ',1,   2,   2,     2.150,     0.594,     0.000,     0.000,     0.000,     0.000,   1,1,0
   115,'1 ',1,   2,   2,     3.297,     0.373,     0.000,     0.000,     0.000,     0.000,   1,1,0
   116,'1 ',1,   2,   2,     4.894,     1.237,     0.000,     0.000,     0.000,     0.000,   1,1,0
   117,'1 ',1,   2,   2,     7.915,     3.207,     0.000,     0.000,     0.000,     0.000,   1,1,0
   118,'1 ',1,   2,   2,     5.827,     2.329,     0.000,     0.000,     0.000,     0.000,   1,1,0
   119,'1 ',1,   2,   2,     4.680,    -1.175,     0.000,     0.000,     0.000,     0.000,   1,1,0
   120,'1 ',1,   2,   2,    15.117,     8.751,     0.000,     0.000,     0.000,     0.000,   1,1,0
   121,'1 ',1,   2,   2,    17.267,    16.030,     0.000,     0.000,     0.000,     0.000,   1,1,0
   122,'1 ',1,   2,   2,    10.071,     2.917,     0.000,     0.000,     0.000,     0.000,   1,1,0
   123,'1 ',1,   2,   2,    11.149,     3.276,     0.000,     0.000,     0.000,     0.000,   1,1,0
   124,'1 ',1,   2,   2,     3.691,     1.223,     0.000,     0.000,     0.000,     0.000,   1,1,0
   125,'1 ',1,   2,   2,     3.919,     4.037,     0.000,     0.000,     0.000,     0.000,   1,1,0
   126,'1 ',1,   2,   2,     5.322,     2.184,     0.000,     0.000,     0.000,     0.000,   1,1,0
   128,'1 ',1,   2,   2,     5.115,     1.756,     0.000,     0.000,     0.000,     0.000,   1,1,0
   129,'1 ',1,   2,   2,     0.829,     0.325,     0.000,     0.000,     0.000,     0.000,   1,1,0
   130,'1 ',1,   2,   2,     3.954,     1.604,     0.000,     0.000,     0.000,     0.000,   1,1,0
   131,'1 ',1,   2,   2,     4.030,     1.604,     0.000,     0.000,     0.000,     0.000,   1,1,0
   132,'1 ',1,   2,   2,     4.320,     1.203,     0.000,     0.000,     0.000,     0.000,   1,1,0
   133,'1 ',1,   2,   2,     4.320,     1.203,     0.000,     0.000,     0.000,     0.000,   1,1,0
   134,'1 ',1,   2,   2,     0.435,     0.145,     0.000,     0.000,     0.000,     0.000,   1,1,0
   135,'1 ',1,   2,   2,     9.076,     3.650,     0.000,     0.000,     0.000,     0.000,   1,1,0
   136,'1 ',1,   2,   2,     6.477,     2.495,     0.000,     0.000,     0.000,     0.000,   1,1,0
   137,'1 ',1,   2,   2,     3.235,     1.313,     0.000,     0.000,     0.000,     0.000,   1,1,0
   138,'1 ',1,   2,   2,     4.465,     1.756,     0.000,     0.000,     0.000,     0.000,   1,1,0
   139,'1 ',1,   2,   2,    15.041,     4.216,     0.000,     0.000,     0.000,     0.000,   1,1,0
   140,'1 ',1,   2,   2,     1.438,     0.581,     0.000,     0.000,     0.000,     0.000,   1,1,0
   141,'1 ',1,   2,   2,     1.873,     0.726,     0.000,     0.000,     0.000,     0.000,   1,1,0
   142,'1 ',1,   2,   2,     2.806,     0.366,     0.000,     0.000,     0.000,     0.000,   1,1,0
   146,'1 ',1,   2,   2,     5.827,     2.115,     0.000,     0.000,     0.000,     0.000,   1,1,0
   147,'1 ',1,   2,   2,     2.592,     0.581,     0.000,     0.000,     0.000,     0.000,   1,1,0
   148,'1 ',1,   2,   2,    19.499,     7.140,     0.000,     0.000,     0.000,     0.000,   1,1,0
   149,'1 ',1,   2,   2,     1.078,     0.435,     0.000,     0.000,     0.000,     0.000,   1,1,0
   150,'1 ',1,   2,   2,   438.237,     0.000,     0.000,     0.000,     0.000,     0.000,   1,1,0
   151,'99',1,   3,   3,    56.335,    59.373,     0.000,     0.000,     0.000,     0.000,   1,1,0
   156,'99',0,   3,   3,   154.603,    71.724,     0.000,     0.000,     0.000,     0.000,   1,1,0
   162,'99',1,   3,   3,    23.995,    41.585,     0.000,     0.000,     0.000,     0.000,   1,1,0
   165,'1 ',1,   3,   3,     7.603,    27.649,     0.000,     0.000,     0.000,     0.000,   1,1,0
   166,'1 ',1,   3,   3,     3.456,     6.912,     0.000,     0.000,     0.000,     0.000,   1,1,0
   167,'1 ',1,   3,   3,     4.790,     2.150,     0.000,     0.000,     0.000,     0.000,   1,1,0
   168,'1 ',1,   3,   3,    10.126,     0.691,     0.000,     0.000,     0.000,     0.000,   1,1,0
   169,'1 ',1,   3,   3,     5.627,     0.912,     0.000,     0.000,     0.000,     0.000,   1,1,0
   170,'1 ',1,   3,   3,     9.795,     2.917,     0.000,     0.000,     0.000,     0.000,   1,1,0
   171,'1 ',1,   3,   3,     2.917,     0.691,     0.000,     0.000,     0.000,     0.000,   1,1,0
   172,'99',1,   3,   3,    91.179,    39.439,     0.000,     0.000,     0.000,     0.000,   1,1,0
   175,'1 ',1,   3,   3,     3.608,     1.458,     0.000,     0.000,     0.000,     0.000,   1,1,0
   176,'1 ',1,   3,   3,     1.804,     0.691,     0.000,     0.000,     0.000,     0.000,   1,1,0
   177,'1 ',1,   3,   3,     0.007,     0.007,     0.000,     0.000,     0.000,     0.000,   1,1,0
   178,'1 ',1,   3,   3,     0.007,     0.007,     0.000,     0.000,     0.000,     0.000,   1,1,0
   179,'1 ',1,   3,   3,    10.832,     3.608,     0.000,     0.000,     0.000,     0.000,   1,1,0
   180,'1 ',1,   3,   3,    11.599,     3.263,     0.000,     0.000,     0.000,     0.000,   1,1,0
   181,'1 ',1,   3,   3,     2.917,     0.346,     0.000,     0.000,     0.000,     0.000,   1,1,0
   182,'1 ',1,   3,   3,     7.500,     0.691,     0.000,     0.000,     0.000,     0.000,   1,1,0
   183,'1 ',1,   3,   3,    10.140,     2.150,     0.000,     0.000,     0.000,     0.000,   1,1,0
   184,'1 ',1,   3,   3,     5.212,     0.691,     0.000,     0.000,     0.000,     0.000,   1,1,0
   185,'1 ',1,   3,   3,     1.458,     0.346,     0.000,     0.000,     0.000,     0.000,   1,1,0
   186,'1 ',1,   3,   3,     3.961,     0.691,     0.000,     0.000,     0.000,     0.000,   1,1,0
   188,'1 ',1,   3,   3,     6.532,     1.804,     0.000,     0.000,     0.000,     0.000,   1,1,0
   189,'1 ',1,   3,   3,     2.917,     0.691,     0.000,     0.000,     0.000,     0.000,   1,1,0
   191,'1 ',1,   3,   3,    10.832,     1.804,     0.000,     0.000,     0.000,     0.000,   1,1,0
   192,'1 ',1,   3,   3,    13.748,     4.721,     0.000,     0.000,     0.000,     0.000,   1,1,0
   193,'1 ',1,   3,   3,     5.765,     1.873,     0.000,     0.000,     0.000,     0.000,   1,1,0
   194,'1 ',1,   3,   3,    11.599,     4.375,     0.000,     0.000,     0.000,     0.000,   1,1,0
   195,'1 ',1,   3,   3,    10.140,     2.150,     0.000,     0.000,     0.000,     0.000,   1,1,0
   196,'1 ',1,   3,   3,     3.608,     0.000,     0.000,     0.000,     0.000,     0.000,   1,1,0
   196,'99',1,   3,   3,     0.402,    -0.155,     0.000,     0.000,     0.000,     0.000,   1,1,0
   197,'1 ',1,   3,   3,     5.067,     1.458,     0.000,     0.000,     0.000,     0.000,   1,1,0
   198,'1 ',1,   3,   3,     3.608,     0.346,     0.000,     0.000,     0.000,     0.000,   1,1,0
   201,'1 ',1,   3,   3,     6.532,     0.691,     0.000,     0.000,     0.000,     0.000,   1,1,0
   202,'1 ',1,   3,   3,     5.765,     0.691,     0.000,     0.000,     0.000,     0.000,   1,1,0
   202,'99',1,   3,   3,     9.111,    -0.248,     0.000,     0.000,     0.000,     0.000,   1,1,0
   203,'1 ',1,   3,   3,     7.223,     0.691,     0.000,     0.000,     0.000,     0.000,   1,1,0
   204,'1 ',1,   3,   3,     5.765,     2.150,     0.000,     0.000,     0.000,     0.000,   1,1,0
   206,'1 ',1,   3,   3,    10.140,     2.150,     0.000,     0.000,     0.000,     0.000,   1,1,0
   207,'1 ',1,   3,   3,    21.041,     2.917,     0.000,     0.000,     0.000,     0.000,   1,1,0
   208,'1 ',1,   3,   3,    13.057,     3.263,     0.000,     0.000,     0.000,     0.000,   1,1,0
   209,'1 ',1,   3,   3,     7.984,     0.691,     0.000,     0.000,     0.000,     0.000,   1,1,0
   210,'1 ',1,   3,   3,    12.290,     2.917,     0.000,     0.000,     0.000,     0.000,   1,1,0
   212,'99',1,   3,   3,     0.184,    -1.042,     0.000,     0.000,     0.000,     0.000,   1,1,0
   213,'99',1,   3,   3,     2.101,    -0.594,     0.000,     0.000,     0.000,     0.000,   1,1,0
   218,'99',1,   4,   4,     9.250,    89.854,     0.000,     0.000,     0.000,     0.000,   1,1,0
   221,'99',0,   4,   4,    50.269,    14.410,     0.000,     0.000,     0.000,     0.000,   1,1,0
   222,'99',1,   4,   4,    67.706,    41.877,     0.000,     0.000,     0.000,     0.000,   1,1,0
   223,'1 ',1,   4,   4,     6.912,    30.414,     0.000,     0.000,     0.000,     0.000,   1,1,0
   224,'1 ',1,   4,   4,     6.912,    30.414,     0.000,     0.000,     0.000,     0.000,   1,1,0
   225,'1 ',1,   4,   4,    12.580,    25.720,     0.000,     0.000,     0.000,     0.000,   1,1,0
   225,'99',0,   4,   4,     4.862,  -115.845,     0.000,     0.000,     0.000,     0.000,   1,1,0
   226,'99',0,   4,   4,    40.753,   -19.411,     0.000,     0.000,     0.000,     0.000,   1,1,0
   227,'1 ',1,   4,   4,     0.000,    -0.546,     0.000,     0.000,     0.000,     0.000,   1,1,0
   228,'1 ',1,   4,   4,     0.000,    -0.546,     0.000,     0.000,     0.000,     0.000,   1,1,0
   229,'1 ',1,   4,   4,     2.509,     0.899,     0.000,     0.000,     0.000,     0.000,   1,1,0
   231,'99',1,   4,   4,    20.321,    -6.742,     0.000,     0.000,     0.000,     0.000,   1,1,0
   232,'99',0,   4,   4,    15.184,     4.564,     0.000,     0.000,     0.000,     0.000,   1,1,0
   233,'1 ',1,   4,   4,     7.382,     3.193,     0.000,     0.000,     0.000,     0.000,   1,1,0
   234,'1 ',1,   4,   4,     3.767,     2.841,     0.000,     0.000,     0.000,     0.000,   1,1,0
   235,'1 ',1,   4,   4,     0.145,     0.159,     0.000,     0.000,     0.000,     0.000,   1,1,0
   235,'99',1,   4,   4,    44.480,    10.798,     0.000,     0.000,     0.000,     0.000,   1,1,0
   236,'1 ',1,   4,   4,     1.106,    -0.373,     0.000,     0.000,     0.000,     0.000,   1,1,0
   238,'1 ',1,   4,   4,    39.400,    13.341,     0.000,     0.000,     0.000,     0.000,   1,1,0
   241,'99',1,   4,   4,    26.752,     5.514,     0.000,     0.000,     0.000,     0.000,   1,1,0
   242,'1 ',1,   4,   4,     0.816,     0.138,     0.000,     0.000,     0.000,     0.000,   1,1,0
   243,'99',1,   4,   4,    13.030,    -6.786,     0.000,     0.000,     0.000,     0.000,   1,1,0
   244,'1 ',1,   4,   4,     3.104,     1.037,     0.000,     0.000,     0.000,     0.000,   1,1,0
   246,'1 ',1,   4,   4,     6.912,    30.414,     0.000,     0.000,     0.000,     0.000,   1,1,0
...
0 / END OF LOAD DATA, BEGIN FIXED SHUNT DATA
     2,'99',1,     0.000,    -7.133
     4,'99',1,     0.000,    -9.601
     6,'99',1,     0.000,    41.987
    32,'99',1,     0.000,    -1.306
    39,'99',1,     0.000,    -0.488
    43,'99',1,     0.000,     3.712
    49,'99',1,     0.000,    -4.149
    53,'99',1,     0.000,   -61.980
    67,'99',1,     0.000,     3.708
    86,'99',1,     0.000,     6.325
    90,'99',1,     0.000,    -0.019
   153,'99',1,     0.000,   -11.354
   156,'99',1,     0.000,    75.294
   157,'99',1,     0.000,   -27.072
   158,'99',1,     0.000,  -322.112
   161,'99',1,     0.000,  -124.239
   221,'99',1,     0.000,    13.922
   225,'99',1,     0.000,  -110.360
   226,'99',1,     0.000,   -18.625
   232,'99',1,     0.000,     4.355
   245,'99',1,     0.000,   -10.356
   253,'99',1,     0.000,     6.238
   255,'99',1,     0.000,     7.309
   271,'99',1,     0.000,     5.929
   275,'99',1,     0.000,    84.787
   277,'99',1,     0.000,   110.690
   281,'99',1,     0.000,     2.151
   285,'99',1,     0.000,  -161.346
   309,'99',1,     0.000,    22.813
   348,'99',1,     0.000,   -12.059
   374,'99',1,     0.000,  -345.603
   466,'99',1,     0.000,  -104.053
   471,'99',1,     0.000,  -290.111
   478,'99',1,     0.000,    64.761
   577,'99',1,     0.000,    -7.123
   579,'99',1,     0.000,    -9.607
   580,'99',1,     0.000,  -102.360
   581,'99',1,     0.000,    47.641
   583,'99',1,     0.000,    -2.918
   585,'99',1,     0.000,    13.934
   589,'99',1,     0.000,     3.923
   623,'99',1,     0.000,     8.010
   624,'99',1,     0.000,    -7.008
   636,'99',1,     0.000,     0.009
   672,'99',1,     0.000,    12.795
   690,'99',1,     0.000,     6.841
   695,'99',1,     0.000,    16.470
   698,'99',1,     0.000,   160.079
   703,'99',1,     0.000,   -47.656
   718,'99',1,     0.000,   -21.734
   720,'99',1,     0.000,    20.121
   723,'99',1,     0.000,     8.700
   750,'99',1,     0.000,    13.261
   760,'99',1,     0.000,    64.443
   766,'99',1,     0.000,   115.888
   817,'99',1,     0.000,    11.465
   869,'99',1,     0.000,     5.172
   883,'99',1,     0.000,    11.098
   939,'99',1,     0.000,    11.802
   942,'99',1,     0.000,     7.486
   979,'99',1,     0.000,    14.306
   983,'99',1,     0.000,    -5.456
   995,'99',1,     0.000,    14.167
  1012,'99',1,     0.000,     2.712
  1013,'99',1,     0.000,   -10.135
  1054,'99',1,     0.000,     2.499
  1096,'99',1,     0.000,   -29.377
  1135,'99',1,     0.000,    16.277
  1226,'99',1,     0.000,   307.861
  1241,'99',1,     0.000,    -9.766
  1245,'99',1,     0.000,    28.800
  1266,'99',1,     0.000,     1.091
  1267,'99',1,     0.000,   -13.276
  1351,'99',1,     0.000,     9.622
  1359,'99',1,     0.000,    44.093
  1376,'99',1,     0.000,    62.250
  1377,'99',1,     0.000,    37.157
  1384,'99',1,     0.000,    -0.278
  1400,'99',1,     0.000,    13.892
  1495,'99',1,     0.000,    -1.174
  1496,'99',1,     0.000,    12.766
  1525,'99',1,     0.000,   -18.886
  1533,'99',1,     0.000,   -95.945
  1557,'99',1,     0.000,   -31.028
  1565,'99',1,     0.000,   -52.104
  1621,'99',1,     0.000,   -73.418
  1807,'99',1,     0.000,   -15.963
  1877,'99',1,     0.000,    -5.368
  1878,'99',1,     0.000,    12.724
  1880,'99',1,     0.000,    -5.367
  1923,'99',1,     0.000,    -9.083
  1951,'99',1,     0.000,     0.756
  1979,'99',1,     0.000,     0.624
  1998,'99',1,     0.000,     4.345
  1999,'99',1,     0.000,    17.297
  2083,'99',1,     0.000,    28.513
  2093,'99',1,     0.000,   103.474
  2095,'99',1,     0.000,   -13.183
  2109,'99',1,     0.000,   -38.789
  2111,'99',1,     0.000,    -2.161
  2129,'99',1,     0.000,    -0.089
  2146,'99',1,     0.000,   -19.827
  2172,'99',1,     0.000,     2.864
  2174,'99',1,     0.000,     9.100
  2179,'99',1,     0.000,    94.807
  2192,'99',1,     0.000,    -0.371
  2197,'99',1,     0.000,     5.815
  2224,'99',1,     0.000,     1.293
  2230,'99',1,     0.000,   -11.696
  2244,'99',1,     0.000,     3.661
  2246,'99',1,     0.000,   -32.703
  2251,'99',1,     0.000,    17.159
  2258,'99',1,     0.000,     9.498
  2262,'99',1,     0.000,    -0.418
  2269,'99',1,     0.000,  -361.197
  2287,'99',1,     0.000,   191.001
  2293,'99',1,     0.000,  -120.311
  2296,'99',1,     0.000,     2.477
  2297,'99',1,     0.000,  -130.348
  2309,'99',1,     0.000,    30.957
  2311,'99',1,     0.000,   -63.287
0 / END OF FIXED SHUNT DATA, BEGIN GENERATOR DATA
     9,'1 ',     0.000,     0.000,   230.625,  -230.625,1.00788,     0,   100.000, 0.00000E+0, 1.80000E-1, 0.00000E+0, 0.00000E+0,1.00000,0,  100.0,   320.312,   135.000,   1,1.0000,0,1,0,1,0,1,0,1
    10,'1 ',   343.752,    -7.318,   383.901,  -383.901,1.00358,     0,   100.000, 0.00000E+0, 1.80000E-1, 0.00000E+0, 0.00000E+0,1.00000,1,  100.0,   533.196,   171.516,   1,1.0000,0,1,0,1,0,1,0,1
    10,'2 ',   322.293,    -6.861,   399.796,  -399.796,1.00358,     0,   100.000, 0.00000E+0, 1.80000E-1, 0.00000E+0, 0.00000E+0,1.00000,1,  100.0,   555.273,   178.876,   1,1.0000,0,1,0,1,0,1,0,1
    11,'1 ',     0.000,     0.000,    16.000,   -16.000,1.00788,     0,   100.000, 0.00000E+0, 2.00000E-1, 0.00000E+0, 0.00000E+0,1.00000,0,  100.0,    55.000,    40.000,   1,1.0000,0,1,0,1,0,1,0,1
    11,'2 ',     0.000,     0.000,    49.500,   -49.500,1.00788,     0,   100.000, 0.00000E+0, 2.00000E-1, 0.00000E+0, 0.00000E+0,1.00000,0,  100.0,    68.750,    35.833,   1,1.0000,0,1,0,1,0,1,0,1
    12,'1 ',     0.000,     0.000,    49.500,   -49.500,1.00788,     0,   100.000, 0.00000E+0, 2.00000E-1, 0.00000E+0, 0.00000E+0,1.00000,0,  100.0,    68.750,    35.833,   1,1.0000,0,1,0,1,0,1,0,1
    20,'1 ',     0.000,     0.000,    16.667,   -16.667,1.02455,     0,   100.000, 0.00000E+0, 2.00000E-1, 0.00000E+0, 0.00000E+0,1.00000,0,  100.0,    50.000,    38.000,   1,1.0000,0,1,0,1,0,1,0,1
    24,'99',     0.085,    11.296,   650.000,  -650.000,1.00540,     0,   100.000, 0.00000E+0, 1.00000E+0, 0.00000E+0, 0.00000E+0,1.00000,1,  100.0,    93.131,     0.000,   1,1.0000,0,1,0,1,0,1,0,1
    25,'1 ',     0.000,     0.000,     8.000,    -8.000,1.02455,     0,   100.000, 0.00000E+0, 2.00000E-1, 0.00000E+0, 0.00000E+0,1.00000,0,  100.0,    24.000,     5.000,   1,1.0000,0,1,0,1,0,1,0,1
    25,'2 ',     0.000,     0.000,     5.667,    -5.667,1.02455,     0,   100.000, 0.00000E+0, 2.00000E-1, 0.00000E+0, 0.00000E+0,1.00000,0,  100.0,    17.000,     4.000,   1,1.0000,0,1,0,1,0,1,0,1
    26,'1 ',     0.000,     0.000,    13.500,   -13.500,1.00788,     0,   100.000, 0.00000E+0, 2.00000E-1, 0.00000E+0, 0.00000E+0,1.00000,0,  100.0,    18.750,     3.000,   1,1.0000,0,1,0,1,0,1,0,1
    26,'2 ',     0.000,     0.000,     5.000,    -5.000,1.00788,     0,   100.000, 0.00000E+0, 2.00000E-1, 0.00000E+0, 0.00000E+0,1.00000,0,  100.0,    15.000,     3.000,   1,1.0000,0,1,0,1,0,1,0,1
    26,'3 ',     0.000,     0.000,     5.000,    -5.000,1.00788,     0,   100.000, 0.00000E+0, 2.00000E-1, 0.00000E+0, 0.00000E+0,1.00000,0,  100.0,    15.000,     3.000,   1,1.0000,0,1,0,1,0,1,0,1
    32,'99',     6.013,    -1.370,    33.333,   -33.333,1.02382,     0,   100.000, 0.00000E+0, 1.00000E+0, 0.00000E+0, 0.00000E+0,1.00000,0,  100.0,   265.000,     6.013,   1,1.0000,0,1,0,1,0,1,0,1
    46,'1 ',     0.000,     0.000,     4.000,    -4.000,0.99723,     0,   100.000, 0.00000E+0, 2.00000E-1, 0.00000E+0, 0.00000E+0,1.00000,0,  100.0,    12.000,     0.000,   1,1.0000,0,1,0,1,0,1,0,1
    46,'2 ',     0.000,    10.800,    10.800,   -10.800,0.99723,     0,   100.000, 0.00000E+0, 2.00000E-1, 0.00000E+0, 0.00000E+0,1.00000,1,  100.0,    15.000,     0.000,   1,1.0000,0,1,0,1,0,1,0,1
    53,'99',    12.674,   -62.519,    33.333,   -33.333,1.00434,     0,   100.000, 0.00000E+0, 1.00000E+0, 0.00000E+0, 0.00000E+0,1.00000,0,  100.0,    27.674,    12.674,   1,1.0000,0,1,0,1,0,1,0,1
    67,'99',     3.326,     3.705,    33.333,   -33.333,1.00356,     0,   100.000, 0.00000E+0, 1.00000E+0, 0.00000E+0, 0.00000E+0,1.00000,0,  100.0,   268.000,     3.326,   1,1.0000,0,1,0,1,0,1,0,1
    68,'1 ',   256.250,     2.277,   230.625,  -230.625,1.00858,     0,   100.000, 0.00000E+0, 1.80000E-1, 0.00000E+0, 0.00000E+0,1.00000,1,  100.0,   320.312,   135.000,   1,1.0000,0,1,0,1,0,1,0,1
    75,'1 ',     0.000,     0.000,   184.500,  -184.500,1.00788,     0,   100.000, 0.00000E+0, 1.80000E-1, 0.00000E+0, 0.00000E+0,1.00000,0,  100.0,   256.250,   135.000,   1,1.0000,0,1,0,1,0,1,0,1
    76,'1 ',     0.000,     0.000,    74.000,   -74.000,1.00788,     0,   100.000, 0.00000E+0, 1.80000E-1, 0.00000E+0, 0.00000E+0,1.00000,0,  100.0,   222.000,    90.000,   1,1.0000,0,1,0,1,0,1,0,1
    76,'2 ',     0.000,     0.000,    68.333,   -68.333,1.00788,     0,   100.000, 0.00000E+0, 1.80000E-1, 0.00000E+0, 0.00000E+0,1.00000,0,  100.0,   205.000,   135.000,   1,1.0000,0,1,0,1,0,1,0,1
    76,'3 ',   232.000,   128.135,   208.800,  -208.800,1.00788,     0,   100.000, 0.00000E+0, 1.80000E-1, 0.00000E+0, 0.00000E+0,1.00000,1,  100.0,   290.000,   100.000,   1,1.0000,0,1,0,1,0,1,0,1
    77,'1 ',     0.000,     0.000,   225.000,  -225.000,1.00260,     0,   100.000, 0.00000E+0, 1.80000E-1, 0.00000E+0, 0.00000E+0,1.00000,0,  100.0,   312.500,    90.000,   1,1.0000,0,1,0,1,0,1,0,1
    77,'99',    97.334,    20.790,   650.000,  -650.000,1.00260,     0,   100.000, 0.00000E+0, 1.00000E+0, 0.00000E+0, 0.00000E+0,1.00000,1,  100.0,   309.292,     0.000,   1,1.0000,0,1,0,1,0,1,0,1
    78,'99',    53.220,   -92.072,   650.000,  -650.000,0.99160,     0,   100.000, 0.00000E+0, 1.00000E+0, 0.00000E+0, 0.00000E+0,1.00000,1,  100.0,   217.319,     0.000,   1,1.0000,0,1,0,1,0,1,0,1
    90,'99',    19.203,    -0.019,    33.333,   -33.333,0.99752,     0,   100.000, 0.00000E+0, 1.00000E+0, 0.00000E+0, 0.00000E+0,1.00000,0,  100.0,    34.203,    19.203,   1,1.0000,0,1,0,1,0,1,0,1
    92,'1 ',   169.200,    11.270,   199.800,  -199.800,1.00542,     0,   100.000, 0.00000E+0, 1.80000E-1, 0.00000E+0, 0.00000E+0,1.00000,1,  100.0,   277.500,    90.000,   1,1.0000,0,1,0,1,0,1,0,1
    95,'1 ',     0.000,     0.000,   258.300,  -258.300,1.00225,     0,   100.000, 0.00000E+0, 2.00000E-1, 0.00000E+0, 0.00000E+0,1.00000,0,  100.0,   358.750,     0.000,   1,1.0000,0,1,0,1,0,1,0,1
    96,'1 ',     0.000,     0.000,     0.333,    -0.333,1.02455,     0,   100.000, 0.00000E+0, 2.00000E-1, 0.00000E+0, 0.00000E+0,1.00000,0,  100.0,   274.000,     0.000,   1,1.0000,0,1,0,1,0,1,0,1
    98,'1 ',     0.000,     0.000,    59.287,   -59.287,1.00358,     0,   100.000, 0.00000E+0, 2.00000E-1, 0.00000E+0, 0.00000E+0,1.00000,0,  100.0,    82.344,    10.000,   1,1.0000,0,1,0,1,0,1,0,1
    98,'2 ',   267.000,   -43.096,   240.300,  -240.300,1.00358,     0,   100.000, 0.00000E+0, 2.00000E-1, 0.00000E+0, 0.00000E+0,1.00000,1,  100.0,   333.750,     2.000,   1,1.0000,0,1,0,1,0,1,0,1
    99,'1 ',   262.000,   -19.541,   235.800,  -235.800,1.00788,     0,   100.000, 0.00000E+0, 2.00000E-1, 0.00000E+0, 0.00000E+0,1.00000,1,  100.0,   327.500,     1.000,   1,1.0000,0,1,0,1,0,1,0,1
    99,'2 ',     0.000,     0.000,     9.667,    -9.667,1.00788,     0,   100.000, 0.00000E+0, 2.00000E-1, 0.00000E+0, 0.00000E+0,1.00000,0,  100.0,    36.000,    21.000,   1,1.0000,0,1,0,1,0,1,0,1
   112,'1 ',     0.000,     0.000,   250.200,  -250.200,1.00358,     0,   100.000, 0.00000E+0, 2.00000E-1, 0.00000E+0, 0.00000E+0,1.00000,0,  100.0,   347.500,     0.000,   1,1.0000,0,1,0,1,0,1,0,1
   112,'2 ',     0.000,     0.000,   259.200,  -259.200,1.00358,     0,   100.000, 0.00000E+0, 2.00000E-1, 0.00000E+0, 0.00000E+0,1.00000,0,  100.0,   360.000,     1.000,   1,1.0000,0,1,0,1,0,1,0,1
   120,'1 ',    20.000,    18.000,    18.000,   -18.000,0.98346,     0,   100.000, 0.00000E+0, 2.00000E-1, 0.00000E+0, 0.00000E+0,1.00000,1,  100.0,    25.000,     5.000,   1,1.0000,0,1,0,1,0,1,0,1
   124,'1 ',     0.000,     0.000,    22.333,   -22.333,1.02455,     0,   100.000, 0.00000E+0, 2.00000E-1, 0.00000E+0, 0.00000E+0,1.00000,0,  100.0,    67.000,    40.000,   1,1.0000,0,1,0,1,0,1,0,1
   125,'1 ',     0.000,     0.000,    58.500,   -58.500,1.00929,     0,   100.000, 0.00000E+0, 2.00000E-1, 0.00000E+0, 0.00000E+0,1.00000,0,  100.0,    81.250,    40.000,   1,1.0000,0,1,0,1,0,1,0,1
   127,'1 ',     0.000,     0.000,    27.900,   -27.900,1.00507,     0,   100.000, 0.00000E+0, 2.00000E-1, 0.00000E+0, 0.00000E+0,1.00000,0,  100.0,    38.750,     0.000,   1,1.0000,0,1,0,1,0,1,0,1
   128,'1 ',     0.000,     0.000,    27.900,   -27.900,1.00507,     0,   100.000, 0.00000E+0, 2.00000E-1, 0.00000E+0, 0.00000E+0,1.00000,0,  100.0,    38.750,     0.000,   1,1.0000,0,1,0,1,0,1,0,1
   135,'1 ',   286.000,   -46.012,   257.400,  -257.400,1.00718,     0,   100.000, 0.00000E+0, 2.00000E-1, 0.00000E+0, 0.00000E+0,1.00000,1,  100.0,   357.500,     1.000,   1,1.0000,0,1,0,1,0,1,0,1
   136,'1 ',     0.000,     0.000,     1.333,    -1.333,1.02455,     0,   100.000, 0.00000E+0, 2.00000E-1, 0.00000E+0, 0.00000E+0,1.00000,0,  100.0,   256.000,     1.000,   1,1.0000,0,1,0,1,0,1,0,1
   136,'2 ',     0.000,     0.000,     6.000,    -6.000,1.02455,     0,   100.000, 0.00000E+0, 2.00000E-1, 0.00000E+0, 0.00000E+0,1.00000,0,  100.0,    18.000,     3.000,   1,1.0000,0,1,0,1,0,1,0,1
   136,'3 ',     0.000,     0.000,    18.667,   -18.667,1.02455,     0,   100.000, 0.00000E+0, 2.00000E-1, 0.00000E+0, 0.00000E+0,1.00000,0,  100.0,    56.000,    10.000,   1,1.0000,0,1,0,1,0,1,0,1
   138,'1 ',     0.000,     0.000,   234.000,  -234.000,1.00788,     0,   100.000, 0.00000E+0, 2.00000E-1, 0.00000E+0, 0.00000E+0,1.00000,0,  100.0,   325.000,     0.000,   1,1.0000,0,1,0,1,0,1,0,1
   150,'1 ',   268.000,    16.913,   241.200,  -241.200,1.00794,     0,   100.000, 0.00000E+0, 1.80000E-1, 0.00000E+0, 0.00000E+0,1.00000,1,  100.0,   335.000,     0.000,   1,1.0000,0,1,0,1,0,1,0,1
   153,'99',   122.965,   -11.335,    33.333,   -33.333,0.99917,     0,   100.000, 0.00000E+0, 1.00000E+0, 0.00000E+0, 0.00000E+0,1.00000,0,  100.0,   137.965,   122.965,   1,1.0000,0,1,0,1,0,1,0,1
   157,'99',    38.537,   -25.154,    33.333,   -33.333,0.96379,     0,   100.000, 0.00000E+0, 1.00000E+0, 0.00000E+0, 0.00000E+0,1.00000,0,  100.0,    53.537,    38.537,   1,1.0000,0,1,0,1,0,1,0,1
   158,'99',   269.075,  -293.602,    33.333,   -33.333,0.95472,     0,   100.000, 0.00000E+0, 1.00000E+0, 0.00000E+0, 0.00000E+0,1.00000,0,  100.0,   284.075,   269.075,   1,1.0000,0,1,0,1,0,1,0,1
   161,'99',    27.024,  -118.604,    33.333,   -33.333,0.97706,     0,   100.000, 0.00000E+0, 1.00000E+0, 0.00000E+0, 0.00000E+0,1.00000,0,  100.0,    42.024,    27.024,   1,1.0000,0,1,0,1,0,1,0,1
   165,'1 ',     0.000,     0.000,   161.100,  -161.100,1.00224,     0,   100.000, 0.00000E+0, 1.80000E-1, 0.00000E+0, 0.00000E+0,1.00000,0,  100.0,   223.750,  -200.000,   1,1.0000,0,1,0,1,0,1,0,1
   165,'2 ',     0.000,     0.000,   161.100,  -161.100,1.00224,     0,   100.000, 0.00000E+0, 1.80000E-1, 0.00000E+0, 0.00000E+0,1.00000,0,  100.0,   223.750,  -200.000,   1,1.0000,0,1,0,1,0,1,0,1
   165,'3 ',     0.000,     0.000,   161.100,  -161.100,1.00224,     0,   100.000, 0.00000E+0, 1.80000E-1, 0.00000E+0, 0.00000E+0,1.00000,0,  100.0,   223.750,  -200.000,   1,1.0000,0,1,0,1,0,1,0,1
   166,'1 ',   179.000,    97.102,   161.100,  -161.100,1.00445,     0,   100.000, 0.00000E+0, 1.80000E-1, 0.00000E+0, 0.00000E+0,1.00000,1,  100.0,   223.750,  -200.000,   1,1.0000,0,1,0,1,0,1,0,1
   168,'1 ',    41.647,    49.500,    49.500,   -49.500,0.99955,     0,   100.000, 0.00000E+0, 2.00000E-1, 0.00000E+0, 0.00000E+0,1.00000,1,  100.0,    68.750,    26.000,   1,1.0000,0,1,0,1,0,1,0,1
   169,'1 ',     0.000,     0.000,    18.333,   -18.333,1.01909,     0,   100.000, 0.00000E+0, 2.00000E-1, 0.00000E+0, 0.00000E+0,1.00000,0,  100.0,    55.000,    26.000,   1,1.0000,0,1,0,1,0,1,0,1
   171,'1 ',     0.000,     0.000,   255.600,  -255.600,1.00718,     0,   100.000, 0.00000E+0, 2.00000E-1, 0.00000E+0, 0.00000E+0,1.00000,0,  100.0,   355.000,     0.000,   1,1.0000,0,1,0,1,0,1,0,1
   177,'1 ',     0.000,     0.000,    16.200,   -16.200,1.00718,     0,   100.000, 0.00000E+0, 2.00000E-1, 0.00000E+0, 0.00000E+0,1.00000,0,  100.0,    22.500,     0.000,   1,1.0000,0,1,0,1,0,1,0,1
   178,'1 ',    22.000,    12.189,    19.800,   -19.800,1.00788,     0,   100.000, 0.00000E+0, 2.00000E-1, 0.00000E+0, 0.00000E+0,1.00000,1,  100.0,    27.500,     0.000,   1,1.0000,0,1,0,1,0,1,0,1
   183,'1 ',   186.693,   -42.167,   235.800,  -235.800,1.00718,     0,   100.000, 0.00000E+0, 2.00000E-1, 0.00000E+0, 0.00000E+0,1.00000,1,  100.0,   327.500,     0.000,   1,1.0000,0,1,0,1,0,1,0,1
   185,'99',   154.931,   -21.312,   650.000,  -650.000,1.00980,     0,   100.000, 0.00000E+0, 1.00000E+0, 0.00000E+0, 0.00000E+0,1.00000,1,  100.0,   341.250,     0.000,   1,1.0000,0,1,0,1,0,1,0,1
   188,'1 ',   128.410,    32.638,   269.100,  -269.100,1.00788,     0,   100.000, 0.00000E+0, 2.00000E-1, 0.00000E+0, 0.00000E+0,1.00000,1,  100.0,   373.750,     1.000,   1,1.0000,0,1,0,1,0,1,0,1
   194,'1 ',     0.000,     0.000,   255.600,  -255.600,1.00718,     0,   100.000, 0.00000E+0, 2.00000E-1, 0.00000E+0, 0.00000E+0,1.00000,0,  100.0,   355.000,     0.000,   1,1.0000,0,1,0,1,0,1,0,1
   195,'1 ',   164.289,     0.836,   230.400,  -230.400,1.00788,     0,   100.000, 0.00000E+0, 2.00000E-1, 0.00000E+0, 0.00000E+0,1.00000,1,  100.0,   320.000,     0.000,   1,1.0000,0,1,0,1,0,1,0,1
   201,'1 ',    88.875,    -7.556,   261.900,  -261.900,1.00788,     0,   100.000, 0.00000E+0, 2.00000E-1, 0.00000E+0, 0.00000E+0,1.00000,1,  100.0,   363.750,     0.000,   1,1.0000,0,1,0,1,0,1,0,1
   207,'1 ',     0.000,     0.000,   264.600,  -264.600,1.00718,     0,   100.000, 0.00000E+0, 2.00000E-1, 0.00000E+0, 0.00000E+0,1.00000,0,  100.0,   367.500,     0.000,   1,1.0000,0,1,0,1,0,1,0,1
   209,'1 ',     0.000,     0.000,   234.900,  -234.900,1.00718,     0,   100.000, 0.00000E+0, 2.00000E-1, 0.00000E+0, 0.00000E+0,1.00000,0,  100.0,   326.250,     0.000,   1,1.0000,0,1,0,1,0,1,0,1
   217,'99',   104.989,    55.658,   650.000,  -650.000,0.99870,     0,   100.000, 0.00000E+0, 1.00000E+0, 0.00000E+0, 0.00000E+0,1.00000,1,  100.0,   213.769,     0.000,   1,1.0000,0,1,0,1,0,1,0,1
   223,'1 ',     0.000,     0.000,   241.893,  -241.893,1.00788,     0,   100.000, 0.00000E+0, 1.80000E-1, 0.00000E+0, 0.00000E+0,1.00000,0,  100.0,   335.963,   120.000,   1,1.0000,0,1,0,1,0,1,0,1
   224,'1 ',   268.750,   107.930,   241.875,  -241.875,1.00788,     0,   100.000, 0.00000E+0, 1.80000E-1, 0.00000E+0, 0.00000E+0,1.00000,1,  100.0,   335.938,   120.000,   1,1.0000,0,1,0,1,0,1,0,1
   225,'1 ',   256.250,   148.436,   230.625,  -230.625,1.00788,     0,   100.000, 0.00000E+0, 1.80000E-1, 0.00000E+0, 0.00000E+0,1.00000,1,  100.0,   320.312,   135.000,   1,1.0000,0,1,0,1,0,1,0,1
   227,'1 ',     0.000,     0.000,    45.000,   -45.000,1.01227,     0,   100.000, 0.00000E+0, 1.80000E-1, 0.00000E+0, 0.00000E+0,1.00000,0,  100.0,   135.000,  -135.000,   1,1.0000,0,1,0,1,0,1,0,1
   227,'2 ',     0.000,     0.000,    45.000,   -45.000,1.01227,     0,   100.000, 0.00000E+0, 1.80000E-1, 0.00000E+0, 0.00000E+0,1.00000,0,  100.0,   135.000,  -135.000,   1,1.0000,0,1,0,1,0,1,0,1
   228,'1 ',     0.000,     0.000,    45.000,   -45.000,1.01227,     0,   100.000, 0.00000E+0, 1.80000E-1, 0.00000E+0, 0.00000E+0,1.00000,0,  100.0,   135.000,  -135.000,   1,1.0000,0,1,0,1,0,1,0,1
   228,'2 ',     0.000,     0.000,    45.000,   -45.000,1.01227,     0,   100.000, 0.00000E+0, 1.80000E-1, 0.00000E+0, 0.00000E+0,1.00000,0,  100.0,   135.000,  -135.000,   1,1.0000,0,1,0,1,0,1,0,1
   235,'1 ',     0.000,     0.000,    16.667,   -16.667,1.02455,     0,   100.000, 0.00000E+0, 2.00000E-1, 0.00000E+0, 0.00000E+0,1.00000,0,  100.0,    50.000,    38.000,   1,1.0000,0,1,0,1,0,1,0,1
   235,'2 ',     0.000,     0.000,    16.667,   -16.667,1.02455,     0,   100.000, 0.00000E+0, 2.00000E-1, 0.00000E+0, 0.00000E+0,1.00000,0,  100.0,    50.000,    38.000,   1,1.0000,0,1,0,1,0,1,0,1
   235,'3 ',     0.000,     0.000,    16.667,   -16.667,1.02455,     0,   100.000, 0.00000E+0, 2.00000E-1, 0.00000E+0, 0.00000E+0,1.00000,0,  100.0,    50.000,    38.000,   1,1.0000,0,1,0,1,0,1,0,1
...